Circuit: * D:\Cours\Electronique\S1\Projet s2\Cahier des charges et fichiers de simulation-20211130\projet_s2a_21\dossier_simulation_ADSR_S2A\ADSR_S2A_2020_initial.asc

Unknown node in .ic card: "c1" -- ignoring
Unknown node in .ic card: "cout" -- ignoring
WARNING: Node CTRL1 is floating.
WARNING: Node CTRL3 is floating.
WARNING: Node CTRL0 is floating.
WARNING: Node CTRL2 is floating.

WARNING: Less than two connections to node V_CV1.  This node is used by V4.
WARNING: Less than two connections to node NC_04.  This node is used by R:U3:OUT5:OUT.
WARNING: Less than two connections to node NC_05.  This node is used by R:U3:OUT6:OUT.
WARNING: Less than two connections to node NC_06.  This node is used by R:U3:OUT7:OUT.
WARNING: Less than two connections to node NC_07.  This node is used by R:U3:OUT8:OUT.
WARNING: Less than two connections to node NC_08.  This node is used by R:U5:OUT:OUT.
WARNING: Less than two connections to node NC_09.  This node is used by R:U8:OUT:OUT.
WARNING: Less than two connections to node NC_10.  This node is used by R:U9:OUT:OUT.
WARNING: Less than two connections to node NC_11.  This node is used by R:U1:OUT:OUT.
WARNING: Less than two connections to node VSS.  This node is used by V2.
WARNING: Less than two connections to node NC_15.  This node is used by R:U2:3.
WARNING: Less than two connections to node VA.  This node is used by R:U2:OUT0:OUT.
WARNING: Less than two connections to node NC_17.  This node is used by R:U2:OUT1:OUT.
WARNING: Less than two connections to node VB_SIM.  This node is used by V5.
WARNING: Less than two connections to node VIMP_SIM.  This node is used by V6.
Per .tran options, skipping operating point for transient analysis.
Ignoring empty pin current: Ix(1:1)
Ignoring empty pin current: Ix(1:2)
Ignoring empty pin current: Ix(1:3)
Ignoring empty pin current: Ix(1:4)
Ignoring empty pin current: Ix(2:1)
Ignoring empty pin current: Ix(2:2)
Ignoring empty pin current: Ix(2:3)
Ignoring empty pin current: Ix(2:4)
Ignoring empty pin current: Ix(u3:vcc)
Ignoring empty pin current: Ix(u5:vcc)
Ignoring empty pin current: Ix(u8:vcc)
Ignoring empty pin current: Ix(u9:vcc)
Ignoring empty pin current: Ix(u1:vcc)
Ignoring empty pin current: Ix(u4:ctrl_a)
Ignoring empty pin current: Ix(u6:ctrl_a)
Ignoring empty pin current: Ix(u7:ctrl_a)
Ignoring empty pin current: Ix(u10:ctrl_a)

Date: Tue Nov 30 07:49:34 2021
Total elapsed time: 10.091 seconds.

tnom = 27
temp = 27
method = modified trap
totiter = 83396
traniter = 83396
tranpoints = 41201
accept = 40944
rejected = 257
matrix size = 341
fillins = 236
solver = Normal
Thread vector: 18.1/8.7[6] 10.2/3.7[6] 3.4/1.8[6] 1.2/1.5[1]  2592/500
Matrix Compiler1: 40.87 KB object code size  7.9/4.6/[2.0]
Matrix Compiler2: 30.17 KB object code size  2.6/3.8/[1.2]

