Circuit: * C:\users\yassine_pop\My Documents\Cours\Electronique\S2\projet_s2\dossier_simulation_ADSR_S2A\Simulation projet.asc

WARNING: Less than two connections to node NC_01.  This node is used by R:U4:OUT1:OUT.
WARNING: Less than two connections to node NC_02.  This node is used by R:U5:OUT5:OUT.
WARNING: Less than two connections to node NC_03.  This node is used by R:U5:OUT6:OUT.
WARNING: Less than two connections to node NC_04.  This node is used by R:U5:OUT7:OUT.
WARNING: Less than two connections to node NC_05.  This node is used by R:U5:OUT8:OUT.
WARNING: Less than two connections to node AUDIO_OUT.  This node is used by B:U14:2.
Direct Newton iteration failed to find .op point.  (Use ".option noopiter" to skip.)
Starting Gmin stepping
Gmin = 10
Gmin = 1.07374
Gmin = 0.115292
Gmin = 0.0123794
Gmin = 0.00132923
vernier = 0.5
Gmin = 0.000247786
vernier = 0.25
vernier = 0.125
vernier = 0.166667
Gmin = 0.000195794
vernier = 0.222222
Gmin = 0.000120226
vernier = 0.296296
vernier = 0.395061
Gmin = 5.37246e-005
vernier = 0.526748
vernier = 0.702331
Gmin = 1.53285e-005
vernier = 0.936441
Gmin = 2.27176e-006
vernier = 1
Gmin = 2.43928e-007
Gmin = 2.61916e-008
Gmin = 2.8123e-009
Gmin = 3.01968e-010
Gmin = 3.24236e-011
Gmin = 3.48146e-012
Gmin = 3.73819e-013
Gmin = 0
Gmin stepping succeeded in finding the operating point.

Ignoring empty pin current: Ix(1:1)
Ignoring empty pin current: Ix(1:2)
Ignoring empty pin current: Ix(1:3)
Ignoring empty pin current: Ix(1:4)
Ignoring empty pin current: Ix(2:1)
Ignoring empty pin current: Ix(2:2)
Ignoring empty pin current: Ix(2:3)
Ignoring empty pin current: Ix(2:4)
Ignoring empty pin current: Ix(u5:vcc)
Ignoring empty pin current: Ix(u6:vcc)
Ignoring empty pin current: Ix(u7:vcc)
Ignoring empty pin current: Ix(u8:vcc)
Ignoring empty pin current: Ix(u9:vcc)
Ignoring empty pin current: Ix(u10:ctrl_a)
Ignoring empty pin current: Ix(u11:ctrl_a)
Ignoring empty pin current: Ix(u12:ctrl_a)
Ignoring empty pin current: Ix(u13:ctrl_a)
Ignoring empty pin current: Ix(u14:1)
Ignoring empty pin current: Ix(u14:2)
Ignoring empty pin current: Ix(u14:3)
Ignoring empty pin current: Ix(u14:4)
Ignoring empty pin current: Ix(u14:5)
Ignoring empty pin current: Ix(u14:6)
Ignoring empty pin current: Ix(u14:8)
Ignoring empty pin current: Ix(1:1)
Ignoring empty pin current: Ix(1:2)
Ignoring empty pin current: Ix(1:3)
Ignoring empty pin current: Ix(1:4)
Ignoring empty pin current: Ix(2:1)
Ignoring empty pin current: Ix(2:2)
Ignoring empty pin current: Ix(2:3)
Ignoring empty pin current: Ix(2:4)
Ignoring empty pin current: Ix(u5:vcc)
Ignoring empty pin current: Ix(u6:vcc)
Ignoring empty pin current: Ix(u7:vcc)
Ignoring empty pin current: Ix(u8:vcc)
Ignoring empty pin current: Ix(u9:vcc)
Ignoring empty pin current: Ix(u10:ctrl_a)
Ignoring empty pin current: Ix(u11:ctrl_a)
Ignoring empty pin current: Ix(u12:ctrl_a)
Ignoring empty pin current: Ix(u13:ctrl_a)
Ignoring empty pin current: Ix(u14:1)
Ignoring empty pin current: Ix(u14:2)
Ignoring empty pin current: Ix(u14:3)
Ignoring empty pin current: Ix(u14:4)
Ignoring empty pin current: Ix(u14:5)
Ignoring empty pin current: Ix(u14:6)
Ignoring empty pin current: Ix(u14:8)

Date: Mon Apr 25 12:32:42 2022
Total elapsed time: 147.235 seconds.

tnom = 27
temp = 27
method = modified trap
totiter = 1879766
traniter = 1878718
tranpoints = 511792
accept = 367402
rejected = 144390
matrix size = 343
fillins = 208
solver = Normal
Thread vector: 29.2/14.9[7] 14.9/5.7[7] 6.7/3.1[7] 1.6/2.6[1]  2592/500
Matrix Compiler1: 39.43 KB object code size  11.2/6.1/[2.9]
Matrix Compiler2: 30.70 KB object code size  5.6/8.2/[2.2]

